Version 4
SHEET 1 1276 680
WIRE -464 96 -496 96
WIRE -304 96 -336 96
WIRE 112 96 80 96
WIRE 272 96 240 96
WIRE 688 96 656 96
WIRE -624 192 -640 192
WIRE -480 192 -496 192
WIRE -464 192 -480 192
WIRE -320 192 -336 192
WIRE -304 192 -320 192
WIRE 96 192 80 192
WIRE 112 192 96 192
WIRE 256 192 240 192
WIRE 272 192 256 192
WIRE 672 192 656 192
WIRE 688 192 672 192
WIRE 832 192 816 192
WIRE -640 256 -640 192
WIRE -480 256 -480 192
WIRE -480 256 -640 256
WIRE -400 256 -480 256
WIRE -320 256 -320 192
WIRE -320 256 -400 256
WIRE 96 256 96 192
WIRE 176 256 96 256
WIRE 256 256 256 192
WIRE 256 256 176 256
WIRE 672 256 672 192
WIRE 752 256 672 256
WIRE 832 256 832 192
WIRE 832 256 752 256
WIRE -400 272 -400 256
WIRE 176 304 176 256
WIRE 752 304 752 256
WIRE 768 304 752 304
WIRE 864 304 848 304
WIRE 752 368 752 304
WIRE 768 368 752 368
WIRE -400 384 -400 352
WIRE 864 384 864 304
WIRE 864 384 832 384
WIRE 928 384 864 384
WIRE 768 400 720 400
FLAG 176 304 0
FLAG -400 384 0
FLAG 928 384 vout
FLAG 720 400 0
SYMBOL voltage -400 256 R0
WINDOW 123 24 124 Left 2
WINDOW 39 0 0 Left 0
SYMATTR Value2 AC 0.004 0
SYMATTR InstName V1
SYMATTR Value 0
SYMBOL OpAmps\\opamp 800 320 R0
SYMATTR InstName U1
SYMBOL res 864 288 R90
WINDOW 0 0 56 VBottom 2
WINDOW 3 32 56 VTop 2
SYMATTR InstName R1
SYMATTR Value 1
SYMBOL contactUnit_0p5mm 176 144 R0
SYMATTR InstName X2
SYMBOL contactUnit_1p5mm -400 144 R0
SYMATTR InstName X3
SYMBOL contactUnit_1p5mm -560 144 R0
SYMATTR InstName X10
SYMBOL baseUnit_1p0mm 16 144 R0
SYMATTR InstName X4
SYMBOL baseUnit_1p0mm -112 144 R0
SYMATTR InstName X6
SYMBOL baseUnit_1p0mm -240 144 R0
SYMATTR InstName X7
SYMBOL contactUnit_1p0mm 752 144 R0
SYMATTR InstName X1
SYMBOL baseUnit_0p1mm 336 144 R0
SYMATTR InstName X5
SYMBOL baseUnit_0p1mm 464 144 R0
SYMATTR InstName X8
SYMBOL baseUnit_0p1mm 592 144 R0
SYMATTR InstName X9
TEXT 848 208 Left 2 !.lib opamp.sub
TEXT -608 448 Left 2 !.ac dec 20 0.1 1Meg
