Version 4
SHEET 1 880 680
WIRE 112 80 80 80
WIRE 112 176 80 176
FLAG -48 80 eIn
FLAG -48 176 rIn
FLAG 240 80 eOut
FLAG 240 176 rOut
SYMBOL baseUnit_0p5mm 16 128 R0
SYMATTR InstName X1
SYMBOL baseUnit_0p5mm 176 128 R0
SYMATTR InstName X2
