Version 4
SHEET 1 880 680
WIRE 112 80 80 80
WIRE 272 80 240 80
WIRE 432 80 400 80
WIRE 592 80 560 80
WIRE 112 176 80 176
WIRE 272 176 240 176
WIRE 432 176 400 176
WIRE 592 176 560 176
FLAG -48 80 eIn
FLAG -48 176 rIn
FLAG 720 80 eOut
FLAG 720 176 rOut
SYMBOL baseUnit_1p0mm 16 128 R0
SYMATTR InstName X6
SYMBOL baseUnit_1p0mm 176 128 R0
SYMATTR InstName X7
SYMBOL baseUnit_1p0mm 336 128 R0
SYMATTR InstName X8
SYMBOL baseUnit_1p0mm 496 128 R0
SYMATTR InstName X9
SYMBOL baseUnit_1p0mm 656 128 R0
SYMATTR InstName X10
