Version 4
SHEET 1 880 680
WIRE 112 80 80 80
WIRE -48 176 -64 176
WIRE 96 176 80 176
WIRE 112 176 96 176
WIRE 256 176 240 176
WIRE 96 240 96 176
WIRE 256 240 256 176
WIRE 256 240 96 240
WIRE -64 272 -64 176
WIRE -32 272 -64 272
WIRE 96 272 96 240
WIRE 96 272 48 272
FLAG -48 80 eIn
FLAG -64 176 rIn
FLAG 240 80 eOut
FLAG 256 176 rOut
SYMBOL contactUnit_0p5mm 16 128 R0
SYMATTR InstName X1
SYMBOL contactUnit_0p5mm 176 128 R0
SYMATTR InstName X2
SYMBOL res 64 256 R90
WINDOW 0 0 56 VBottom 2
WINDOW 3 32 56 VTop 2
SYMATTR InstName R1
SYMATTR Value 1n
