Version 4
SHEET 1 892 680
WIRE -176 96 -256 96
WIRE 240 96 208 96
WIRE 400 96 368 96
WIRE 560 96 528 96
WIRE -384 192 -400 192
WIRE -240 192 -256 192
WIRE -176 192 -240 192
WIRE 224 192 208 192
WIRE 240 192 224 192
WIRE 384 192 368 192
WIRE 400 192 384 192
WIRE 544 192 528 192
WIRE 560 192 544 192
WIRE 704 192 688 192
WIRE -400 256 -400 192
WIRE -320 256 -400 256
WIRE -240 256 -240 192
WIRE -240 256 -320 256
WIRE 224 256 224 192
WIRE 304 256 224 256
WIRE 384 256 384 192
WIRE 384 256 304 256
WIRE 544 256 544 192
WIRE 624 256 544 256
WIRE 704 256 704 192
WIRE 704 256 624 256
WIRE -320 272 -320 256
WIRE 304 304 304 256
WIRE 624 304 624 256
WIRE 640 304 624 304
WIRE 736 304 720 304
WIRE 624 368 624 304
WIRE 640 368 624 368
WIRE -320 384 -320 352
WIRE 736 384 736 304
WIRE 736 384 704 384
WIRE 800 384 736 384
WIRE 640 400 592 400
FLAG 304 304 0
FLAG -320 384 0
FLAG 800 384 vout
FLAG 592 400 0
SYMBOL contactUnit_1p5mm -320 144 R0
SYMATTR InstName X1
SYMBOL contactUnit_1p5mm 304 144 R0
SYMATTR InstName X2
SYMBOL contactUnit_1p5mm 624 144 R0
SYMATTR InstName X3
SYMBOL voltage -320 256 R0
WINDOW 123 24 124 Left 2
WINDOW 39 0 0 Left 0
SYMATTR Value2 AC 0.004 0
SYMATTR InstName V1
SYMATTR Value 0
SYMBOL OpAmps\\opamp 672 320 R0
SYMATTR InstName U1
SYMBOL res 736 288 R90
WINDOW 0 0 56 VBottom 2
WINDOW 3 32 56 VTop 2
SYMATTR InstName R1
SYMATTR Value 1
SYMBOL baseUnit_5p0mm 144 144 R0
SYMATTR InstName X6
SYMBOL baseUnit_1p0mm 464 144 R0
SYMATTR InstName X4
SYMBOL baseUnit_1p0mm 16 144 R0
SYMATTR InstName X5
SYMBOL baseUnit_1p0mm -112 144 R0
SYMATTR InstName X7
TEXT 720 208 Left 2 !.lib opamp.sub
TEXT -400 448 Left 2 !.ac dec 20 0.1 1Meg
