Version 4
SHEET 1 880 680
WIRE 112 80 80 80
WIRE 272 80 240 80
WIRE 432 80 400 80
WIRE 592 80 560 80
WIRE -48 176 -64 176
WIRE 96 176 80 176
WIRE 112 176 96 176
WIRE 256 176 240 176
WIRE 272 176 256 176
WIRE 416 176 400 176
WIRE 432 176 416 176
WIRE 576 176 560 176
WIRE 592 176 576 176
WIRE 736 176 720 176
WIRE 96 208 96 176
WIRE 256 208 256 176
WIRE 256 208 96 208
WIRE 416 208 416 176
WIRE 416 208 256 208
WIRE 576 208 576 176
WIRE 576 208 416 208
WIRE 736 208 736 176
WIRE 736 208 576 208
WIRE -64 240 -64 176
WIRE -16 240 -64 240
WIRE 96 240 96 208
WIRE 96 240 64 240
FLAG -48 80 eIn
FLAG -64 176 rIn
FLAG 720 80 eOut
FLAG 736 176 rOut
SYMBOL baseUnit_0p1mm 16 128 R0
SYMATTR InstName X1
SYMBOL baseUnit_0p1mm 176 128 R0
SYMATTR InstName X2
SYMBOL baseUnit_0p1mm 336 128 R0
SYMATTR InstName X3
SYMBOL baseUnit_0p1mm 496 128 R0
SYMATTR InstName X4
SYMBOL baseUnit_0p1mm 656 128 R0
SYMATTR InstName X5
SYMBOL res 80 224 R90
WINDOW 0 0 56 VBottom 2
WINDOW 3 32 56 VTop 2
SYMATTR InstName R1
SYMATTR Value 1n
